*SPEF "IEEE 1481-1999"
*DESIGN "ntt_block_radix2_pipelined"
*DATE "Sun Dec  7 23:21:59 2025"
*VENDOR "SYNOPSYS INC"
*PROGRAM "Synopsys Design Compiler cmos"
*VERSION "V-2023.12-SP5"
*DESIGN_FLOW "SYNTHESIS"
*DIVIDER /
*DELIMITER :
*BUS_DELIMITER []
*T_UNIT 1.0 NS
*C_UNIT 0.0010 PF
*R_UNIT 1000.0 KOHM
*L_UNIT 1.0 HENRY

*PORTS

clk I *L 0.000e+00 *S 0.000e+00 1.651e+00 *D NBUFFX4_RVT 
reset I *L 0.000e+00 *S 1.080e-02 2.063e-02 *D NBUFFX4_RVT 
data_valid_in I *L 0.000e+00 *S 1.992e-03 4.029e-02 *D NBUFFX4_RVT 
iNTT_mode I *L 0.000e+00 *S 1.992e-03 4.029e-02 *D NBUFFX4_RVT 
Data_in\[127\] I *L 0.000e+00 *S 1.992e-03 4.029e-02 *D NBUFFX4_RVT 
Data_in\[126\] I *L 0.000e+00 *S 1.992e-03 4.029e-02 *D NBUFFX4_RVT 
Data_in\[125\] I *L 0.000e+00 *S 1.992e-03 4.029e-02 *D NBUFFX4_RVT 
Data_in\[124\] I *L 0.000e+00 *S 1.992e-03 4.029e-02 *D NBUFFX4_RVT 
Data_in\[123\] I *L 0.000e+00 *S 1.992e-03 4.029e-02 *D NBUFFX4_RVT 
Data_in\[122\] I *L 0.000e+00 *S 1.992e-03 4.029e-02 *D NBUFFX4_RVT 
Data_in\[121\] I *L 0.000e+00 *S 1.992e-03 4.029e-02 *D NBUFFX4_RVT 
Data_in\[120\] I *L 0.000e+00 *S 1.992e-03 4.029e-02 *D NBUFFX4_RVT 
Data_in\[119\] I *L 0.000e+00 *S 1.992e-03 4.029e-02 *D NBUFFX4_RVT 
Data_in\[118\] I *L 0.000e+00 *S 1.992e-03 4.029e-02 *D NBUFFX4_RVT 
Data_in\[117\] I *L 0.000e+00 *S 1.992e-03 4.029e-02 *D NBUFFX4_RVT 
Data_in\[116\] I *L 0.000e+00 *S 1.992e-03 4.029e-02 *D NBUFFX4_RVT 
Data_in\[115\] I *L 0.000e+00 *S 1.992e-03 4.029e-02 *D NBUFFX4_RVT 
Data_in\[114\] I *L 0.000e+00 *S 1.992e-03 4.029e-02 *D NBUFFX4_RVT 
Data_in\[113\] I *L 0.000e+00 *S 1.992e-03 4.029e-02 *D NBUFFX4_RVT 
Data_in\[112\] I *L 0.000e+00 *S 1.992e-03 4.029e-02 *D NBUFFX4_RVT 
Data_in\[111\] I *L 0.000e+00 *S 1.992e-03 4.029e-02 *D NBUFFX4_RVT 
Data_in\[110\] I *L 0.000e+00 *S 1.992e-03 4.029e-02 *D NBUFFX4_RVT 
Data_in\[109\] I *L 0.000e+00 *S 1.992e-03 4.029e-02 *D NBUFFX4_RVT 
Data_in\[108\] I *L 0.000e+00 *S 1.992e-03 4.029e-02 *D NBUFFX4_RVT 
Data_in\[107\] I *L 0.000e+00 *S 1.992e-03 4.029e-02 *D NBUFFX4_RVT 
Data_in\[106\] I *L 0.000e+00 *S 1.992e-03 4.029e-02 *D NBUFFX4_RVT 
Data_in\[105\] I *L 0.000e+00 *S 1.992e-03 4.029e-02 *D NBUFFX4_RVT 
Data_in\[104\] I *L 0.000e+00 *S 1.992e-03 4.029e-02 *D NBUFFX4_RVT 
Data_in\[103\] I *L 0.000e+00 *S 1.992e-03 4.029e-02 *D NBUFFX4_RVT 
Data_in\[102\] I *L 0.000e+00 *S 1.992e-03 4.029e-02 *D NBUFFX4_RVT 
Data_in\[101\] I *L 0.000e+00 *S 1.992e-03 4.029e-02 *D NBUFFX4_RVT 
Data_in\[100\] I *L 0.000e+00 *S 1.992e-03 4.029e-02 *D NBUFFX4_RVT 
Data_in\[99\] I *L 0.000e+00 *S 1.992e-03 4.029e-02 *D NBUFFX4_RVT 
Data_in\[98\] I *L 0.000e+00 *S 1.992e-03 4.029e-02 *D NBUFFX4_RVT 
Data_in\[97\] I *L 0.000e+00 *S 1.992e-03 4.029e-02 *D NBUFFX4_RVT 
Data_in\[96\] I *L 0.000e+00 *S 1.992e-03 4.029e-02 *D NBUFFX4_RVT 
Data_in\[95\] I *L 0.000e+00 *S 1.992e-03 4.029e-02 *D NBUFFX4_RVT 
Data_in\[94\] I *L 0.000e+00 *S 1.992e-03 4.029e-02 *D NBUFFX4_RVT 
Data_in\[93\] I *L 0.000e+00 *S 1.992e-03 4.029e-02 *D NBUFFX4_RVT 
Data_in\[92\] I *L 0.000e+00 *S 1.992e-03 4.029e-02 *D NBUFFX4_RVT 
Data_in\[91\] I *L 0.000e+00 *S 1.992e-03 4.029e-02 *D NBUFFX4_RVT 
Data_in\[90\] I *L 0.000e+00 *S 1.992e-03 4.029e-02 *D NBUFFX4_RVT 
Data_in\[89\] I *L 0.000e+00 *S 1.992e-03 4.029e-02 *D NBUFFX4_RVT 
Data_in\[88\] I *L 0.000e+00 *S 1.992e-03 4.029e-02 *D NBUFFX4_RVT 
Data_in\[87\] I *L 0.000e+00 *S 1.992e-03 4.029e-02 *D NBUFFX4_RVT 
Data_in\[86\] I *L 0.000e+00 *S 1.992e-03 4.029e-02 *D NBUFFX4_RVT 
Data_in\[85\] I *L 0.000e+00 *S 1.992e-03 4.029e-02 *D NBUFFX4_RVT 
Data_in\[84\] I *L 0.000e+00 *S 1.992e-03 4.029e-02 *D NBUFFX4_RVT 
Data_in\[83\] I *L 0.000e+00 *S 1.992e-03 4.029e-02 *D NBUFFX4_RVT 
Data_in\[82\] I *L 0.000e+00 *S 1.992e-03 4.029e-02 *D NBUFFX4_RVT 
Data_in\[81\] I *L 0.000e+00 *S 1.992e-03 4.029e-02 *D NBUFFX4_RVT 
Data_in\[80\] I *L 0.000e+00 *S 1.992e-03 4.029e-02 *D NBUFFX4_RVT 
Data_in\[79\] I *L 0.000e+00 *S 1.992e-03 4.029e-02 *D NBUFFX4_RVT 
Data_in\[78\] I *L 0.000e+00 *S 1.992e-03 4.029e-02 *D NBUFFX4_RVT 
Data_in\[77\] I *L 0.000e+00 *S 1.992e-03 4.029e-02 *D NBUFFX4_RVT 
Data_in\[76\] I *L 0.000e+00 *S 1.992e-03 4.029e-02 *D NBUFFX4_RVT 
Data_in\[75\] I *L 0.000e+00 *S 1.992e-03 4.029e-02 *D NBUFFX4_RVT 
Data_in\[74\] I *L 0.000e+00 *S 1.992e-03 4.029e-02 *D NBUFFX4_RVT 
Data_in\[73\] I *L 0.000e+00 *S 1.992e-03 4.029e-02 *D NBUFFX4_RVT 
Data_in\[72\] I *L 0.000e+00 *S 1.992e-03 4.029e-02 *D NBUFFX4_RVT 
Data_in\[71\] I *L 0.000e+00 *S 1.992e-03 4.029e-02 *D NBUFFX4_RVT 
Data_in\[70\] I *L 0.000e+00 *S 1.992e-03 4.029e-02 *D NBUFFX4_RVT 
Data_in\[69\] I *L 0.000e+00 *S 1.992e-03 4.029e-02 *D NBUFFX4_RVT 
Data_in\[68\] I *L 0.000e+00 *S 1.992e-03 4.029e-02 *D NBUFFX4_RVT 
Data_in\[67\] I *L 0.000e+00 *S 1.992e-03 4.029e-02 *D NBUFFX4_RVT 
Data_in\[66\] I *L 0.000e+00 *S 1.992e-03 4.029e-02 *D NBUFFX4_RVT 
Data_in\[65\] I *L 0.000e+00 *S 1.992e-03 4.029e-02 *D NBUFFX4_RVT 
Data_in\[64\] I *L 0.000e+00 *S 1.992e-03 4.029e-02 *D NBUFFX4_RVT 
Data_in\[63\] I *L 0.000e+00 *S 1.992e-03 4.029e-02 *D NBUFFX4_RVT 
Data_in\[62\] I *L 0.000e+00 *S 1.992e-03 4.029e-02 *D NBUFFX4_RVT 
Data_in\[61\] I *L 0.000e+00 *S 1.992e-03 4.029e-02 *D NBUFFX4_RVT 
Data_in\[60\] I *L 0.000e+00 *S 1.992e-03 4.029e-02 *D NBUFFX4_RVT 
Data_in\[59\] I *L 0.000e+00 *S 1.992e-03 4.029e-02 *D NBUFFX4_RVT 
Data_in\[58\] I *L 0.000e+00 *S 1.992e-03 4.029e-02 *D NBUFFX4_RVT 
Data_in\[57\] I *L 0.000e+00 *S 1.992e-03 4.029e-02 *D NBUFFX4_RVT 
Data_in\[56\] I *L 0.000e+00 *S 1.992e-03 4.029e-02 *D NBUFFX4_RVT 
Data_in\[55\] I *L 0.000e+00 *S 1.992e-03 4.029e-02 *D NBUFFX4_RVT 
Data_in\[54\] I *L 0.000e+00 *S 1.992e-03 4.029e-02 *D NBUFFX4_RVT 
Data_in\[53\] I *L 0.000e+00 *S 1.992e-03 4.029e-02 *D NBUFFX4_RVT 
Data_in\[52\] I *L 0.000e+00 *S 1.992e-03 4.029e-02 *D NBUFFX4_RVT 
Data_in\[51\] I *L 0.000e+00 *S 1.992e-03 4.029e-02 *D NBUFFX4_RVT 
Data_in\[50\] I *L 0.000e+00 *S 1.992e-03 4.029e-02 *D NBUFFX4_RVT 
Data_in\[49\] I *L 0.000e+00 *S 1.992e-03 4.029e-02 *D NBUFFX4_RVT 
Data_in\[48\] I *L 0.000e+00 *S 1.992e-03 4.029e-02 *D NBUFFX4_RVT 
Data_in\[47\] I *L 0.000e+00 *S 1.992e-03 4.029e-02 *D NBUFFX4_RVT 
Data_in\[46\] I *L 0.000e+00 *S 1.992e-03 4.029e-02 *D NBUFFX4_RVT 
Data_in\[45\] I *L 0.000e+00 *S 1.992e-03 4.029e-02 *D NBUFFX4_RVT 
Data_in\[44\] I *L 0.000e+00 *S 1.992e-03 4.029e-02 *D NBUFFX4_RVT 
Data_in\[43\] I *L 0.000e+00 *S 1.992e-03 4.029e-02 *D NBUFFX4_RVT 
Data_in\[42\] I *L 0.000e+00 *S 1.992e-03 4.029e-02 *D NBUFFX4_RVT 
Data_in\[41\] I *L 0.000e+00 *S 1.992e-03 4.029e-02 *D NBUFFX4_RVT 
Data_in\[40\] I *L 0.000e+00 *S 1.992e-03 4.029e-02 *D NBUFFX4_RVT 
Data_in\[39\] I *L 0.000e+00 *S 1.992e-03 4.029e-02 *D NBUFFX4_RVT 
Data_in\[38\] I *L 0.000e+00 *S 1.992e-03 4.029e-02 *D NBUFFX4_RVT 
Data_in\[37\] I *L 0.000e+00 *S 1.992e-03 4.029e-02 *D NBUFFX4_RVT 
Data_in\[36\] I *L 0.000e+00 *S 1.992e-03 4.029e-02 *D NBUFFX4_RVT 
Data_in\[35\] I *L 0.000e+00 *S 1.992e-03 4.029e-02 *D NBUFFX4_RVT 
Data_in\[34\] I *L 0.000e+00 *S 1.992e-03 4.029e-02 *D NBUFFX4_RVT 
Data_in\[33\] I *L 0.000e+00 *S 1.992e-03 4.029e-02 *D NBUFFX4_RVT 
Data_in\[32\] I *L 0.000e+00 *S 1.992e-03 4.029e-02 *D NBUFFX4_RVT 
Data_in\[31\] I *L 0.000e+00 *S 1.992e-03 4.029e-02 *D NBUFFX4_RVT 
Data_in\[30\] I *L 0.000e+00 *S 1.992e-03 4.029e-02 *D NBUFFX4_RVT 
Data_in\[29\] I *L 0.000e+00 *S 1.992e-03 4.029e-02 *D NBUFFX4_RVT 
Data_in\[28\] I *L 0.000e+00 *S 1.992e-03 4.029e-02 *D NBUFFX4_RVT 
Data_in\[27\] I *L 0.000e+00 *S 1.992e-03 4.029e-02 *D NBUFFX4_RVT 
Data_in\[26\] I *L 0.000e+00 *S 1.992e-03 4.029e-02 *D NBUFFX4_RVT 
Data_in\[25\] I *L 0.000e+00 *S 1.992e-03 4.029e-02 *D NBUFFX4_RVT 
Data_in\[24\] I *L 0.000e+00 *S 1.992e-03 4.029e-02 *D NBUFFX4_RVT 
Data_in\[23\] I *L 0.000e+00 *S 1.992e-03 4.029e-02 *D NBUFFX4_RVT 
Data_in\[22\] I *L 0.000e+00 *S 1.992e-03 4.029e-02 *D NBUFFX4_RVT 
Data_in\[21\] I *L 0.000e+00 *S 1.992e-03 4.029e-02 *D NBUFFX4_RVT 
Data_in\[20\] I *L 0.000e+00 *S 1.992e-03 4.029e-02 *D NBUFFX4_RVT 
Data_in\[19\] I *L 0.000e+00 *S 1.992e-03 4.029e-02 *D NBUFFX4_RVT 
Data_in\[18\] I *L 0.000e+00 *S 1.992e-03 4.029e-02 *D NBUFFX4_RVT 
Data_in\[17\] I *L 0.000e+00 *S 1.992e-03 4.029e-02 *D NBUFFX4_RVT 
Data_in\[16\] I *L 0.000e+00 *S 1.992e-03 4.029e-02 *D NBUFFX4_RVT 
Data_in\[15\] I *L 0.000e+00 *S 1.992e-03 4.029e-02 *D NBUFFX4_RVT 
Data_in\[14\] I *L 0.000e+00 *S 1.992e-03 4.029e-02 *D NBUFFX4_RVT 
Data_in\[13\] I *L 0.000e+00 *S 1.992e-03 4.029e-02 *D NBUFFX4_RVT 
Data_in\[12\] I *L 0.000e+00 *S 1.992e-03 4.029e-02 *D NBUFFX4_RVT 
Data_in\[11\] I *L 0.000e+00 *S 1.992e-03 4.029e-02 *D NBUFFX4_RVT 
Data_in\[10\] I *L 0.000e+00 *S 1.992e-03 4.029e-02 *D NBUFFX4_RVT 
Data_in\[9\] I *L 0.000e+00 *S 1.992e-03 4.029e-02 *D NBUFFX4_RVT 
Data_in\[8\] I *L 0.000e+00 *S 1.992e-03 4.029e-02 *D NBUFFX4_RVT 
Data_in\[7\] I *L 0.000e+00 *S 1.992e-03 4.029e-02 *D NBUFFX4_RVT 
Data_in\[6\] I *L 0.000e+00 *S 1.992e-03 4.029e-02 *D NBUFFX4_RVT 
Data_in\[5\] I *L 0.000e+00 *S 1.992e-03 4.029e-02 *D NBUFFX4_RVT 
Data_in\[4\] I *L 0.000e+00 *S 1.992e-03 4.029e-02 *D NBUFFX4_RVT 
Data_in\[3\] I *L 0.000e+00 *S 1.992e-03 4.029e-02 *D NBUFFX4_RVT 
Data_in\[2\] I *L 0.000e+00 *S 1.992e-03 4.029e-02 *D NBUFFX4_RVT 
Data_in\[1\] I *L 0.000e+00 *S 1.992e-03 4.029e-02 *D NBUFFX4_RVT 
Data_in\[0\] I *L 0.000e+00 *S 1.992e-03 4.029e-02 *D NBUFFX4_RVT 
Data_out\[127\] O *L 3.000e-01 *S 1.906e-03 3.272e-03 
Data_out\[126\] O *L 3.000e-01 *S 1.906e-03 3.272e-03 
Data_out\[125\] O *L 3.000e-01 *S 1.906e-03 3.272e-03 
Data_out\[124\] O *L 3.000e-01 *S 1.906e-03 3.272e-03 
Data_out\[123\] O *L 3.000e-01 *S 1.906e-03 3.272e-03 
Data_out\[122\] O *L 3.000e-01 *S 1.906e-03 3.272e-03 
Data_out\[121\] O *L 3.000e-01 *S 1.906e-03 3.272e-03 
Data_out\[120\] O *L 3.000e-01 *S 1.906e-03 3.272e-03 
Data_out\[119\] O *L 3.000e-01 *S 1.906e-03 3.272e-03 
Data_out\[118\] O *L 3.000e-01 *S 1.906e-03 3.272e-03 
Data_out\[117\] O *L 3.000e-01 *S 1.906e-03 3.272e-03 
Data_out\[116\] O *L 3.000e-01 *S 1.906e-03 3.272e-03 
Data_out\[115\] O *L 3.000e-01 *S 1.906e-03 3.272e-03 
Data_out\[114\] O *L 3.000e-01 *S 1.906e-03 3.272e-03 
Data_out\[113\] O *L 3.000e-01 *S 1.906e-03 3.272e-03 
Data_out\[112\] O *L 3.000e-01 *S 1.906e-03 3.272e-03 
Data_out\[111\] O *L 3.000e-01 *S 1.906e-03 3.272e-03 
Data_out\[110\] O *L 3.000e-01 *S 1.906e-03 3.272e-03 
Data_out\[109\] O *L 3.000e-01 *S 1.906e-03 3.272e-03 
Data_out\[108\] O *L 3.000e-01 *S 1.906e-03 3.272e-03 
Data_out\[107\] O *L 3.000e-01 *S 1.906e-03 3.272e-03 
Data_out\[106\] O *L 3.000e-01 *S 1.906e-03 3.272e-03 
Data_out\[105\] O *L 3.000e-01 *S 1.906e-03 3.272e-03 
Data_out\[104\] O *L 3.000e-01 *S 1.906e-03 3.272e-03 
Data_out\[103\] O *L 3.000e-01 *S 1.906e-03 3.272e-03 
Data_out\[102\] O *L 3.000e-01 *S 1.906e-03 3.272e-03 
Data_out\[101\] O *L 3.000e-01 *S 1.906e-03 3.272e-03 
Data_out\[100\] O *L 3.000e-01 *S 1.906e-03 3.272e-03 
Data_out\[99\] O *L 3.000e-01 *S 1.906e-03 3.272e-03 
Data_out\[98\] O *L 3.000e-01 *S 1.906e-03 3.272e-03 
Data_out\[97\] O *L 3.000e-01 *S 1.906e-03 3.272e-03 
Data_out\[96\] O *L 3.000e-01 *S 1.906e-03 3.272e-03 
Data_out\[95\] O *L 3.000e-01 *S 1.906e-03 3.272e-03 
Data_out\[94\] O *L 3.000e-01 *S 1.906e-03 3.272e-03 
Data_out\[93\] O *L 3.000e-01 *S 1.906e-03 3.272e-03 
Data_out\[92\] O *L 3.000e-01 *S 1.906e-03 3.272e-03 
Data_out\[91\] O *L 3.000e-01 *S 1.906e-03 3.272e-03 
Data_out\[90\] O *L 3.000e-01 *S 1.906e-03 3.272e-03 
Data_out\[89\] O *L 3.000e-01 *S 1.906e-03 3.272e-03 
Data_out\[88\] O *L 3.000e-01 *S 1.906e-03 3.272e-03 
Data_out\[87\] O *L 3.000e-01 *S 1.906e-03 3.272e-03 
Data_out\[86\] O *L 3.000e-01 *S 1.906e-03 3.272e-03 
Data_out\[85\] O *L 3.000e-01 *S 1.906e-03 3.272e-03 
Data_out\[84\] O *L 3.000e-01 *S 1.906e-03 3.272e-03 
Data_out\[83\] O *L 3.000e-01 *S 1.906e-03 3.272e-03 
Data_out\[82\] O *L 3.000e-01 *S 1.906e-03 3.272e-03 
Data_out\[81\] O *L 3.000e-01 *S 1.906e-03 3.272e-03 
Data_out\[80\] O *L 3.000e-01 *S 1.906e-03 3.272e-03 
Data_out\[79\] O *L 3.000e-01 *S 1.906e-03 3.272e-03 
Data_out\[78\] O *L 3.000e-01 *S 1.906e-03 3.272e-03 
Data_out\[77\] O *L 3.000e-01 *S 1.906e-03 3.272e-03 
Data_out\[76\] O *L 3.000e-01 *S 1.906e-03 3.272e-03 
Data_out\[75\] O *L 3.000e-01 *S 1.906e-03 3.272e-03 
Data_out\[74\] O *L 3.000e-01 *S 1.906e-03 3.272e-03 
Data_out\[73\] O *L 3.000e-01 *S 1.906e-03 3.272e-03 
Data_out\[72\] O *L 3.000e-01 *S 1.906e-03 3.272e-03 
Data_out\[71\] O *L 3.000e-01 *S 1.906e-03 3.272e-03 
Data_out\[70\] O *L 3.000e-01 *S 1.906e-03 3.272e-03 
Data_out\[69\] O *L 3.000e-01 *S 1.906e-03 3.272e-03 
Data_out\[68\] O *L 3.000e-01 *S 1.906e-03 3.272e-03 
Data_out\[67\] O *L 3.000e-01 *S 1.906e-03 3.272e-03 
Data_out\[66\] O *L 3.000e-01 *S 1.906e-03 3.272e-03 
Data_out\[65\] O *L 3.000e-01 *S 1.906e-03 3.272e-03 
Data_out\[64\] O *L 3.000e-01 *S 1.906e-03 3.272e-03 
Data_out\[63\] O *L 3.000e-01 *S 1.906e-03 3.272e-03 
Data_out\[62\] O *L 3.000e-01 *S 1.906e-03 3.272e-03 
Data_out\[61\] O *L 3.000e-01 *S 1.906e-03 3.272e-03 
Data_out\[60\] O *L 3.000e-01 *S 1.906e-03 3.272e-03 
Data_out\[59\] O *L 3.000e-01 *S 1.906e-03 3.272e-03 
Data_out\[58\] O *L 3.000e-01 *S 1.906e-03 3.272e-03 
Data_out\[57\] O *L 3.000e-01 *S 1.906e-03 3.272e-03 
Data_out\[56\] O *L 3.000e-01 *S 1.906e-03 3.272e-03 
Data_out\[55\] O *L 3.000e-01 *S 1.906e-03 3.272e-03 
Data_out\[54\] O *L 3.000e-01 *S 1.906e-03 3.272e-03 
Data_out\[53\] O *L 3.000e-01 *S 1.906e-03 3.272e-03 
Data_out\[52\] O *L 3.000e-01 *S 1.906e-03 3.272e-03 
Data_out\[51\] O *L 3.000e-01 *S 1.906e-03 3.272e-03 
Data_out\[50\] O *L 3.000e-01 *S 1.906e-03 3.272e-03 
Data_out\[49\] O *L 3.000e-01 *S 1.906e-03 3.272e-03 
Data_out\[48\] O *L 3.000e-01 *S 1.906e-03 3.272e-03 
Data_out\[47\] O *L 3.000e-01 *S 1.906e-03 3.272e-03 
Data_out\[46\] O *L 3.000e-01 *S 1.906e-03 3.272e-03 
Data_out\[45\] O *L 3.000e-01 *S 1.906e-03 3.272e-03 
Data_out\[44\] O *L 3.000e-01 *S 1.906e-03 3.272e-03 
Data_out\[43\] O *L 3.000e-01 *S 1.906e-03 3.272e-03 
Data_out\[42\] O *L 3.000e-01 *S 1.906e-03 3.272e-03 
Data_out\[41\] O *L 3.000e-01 *S 1.906e-03 3.272e-03 
Data_out\[40\] O *L 3.000e-01 *S 1.906e-03 3.272e-03 
Data_out\[39\] O *L 3.000e-01 *S 1.906e-03 3.272e-03 
Data_out\[38\] O *L 3.000e-01 *S 1.906e-03 3.272e-03 
Data_out\[37\] O *L 3.000e-01 *S 1.906e-03 3.272e-03 
Data_out\[36\] O *L 3.000e-01 *S 1.906e-03 3.272e-03 
Data_out\[35\] O *L 3.000e-01 *S 1.906e-03 3.272e-03 
Data_out\[34\] O *L 3.000e-01 *S 1.906e-03 3.272e-03 
Data_out\[33\] O *L 3.000e-01 *S 1.906e-03 3.272e-03 
Data_out\[32\] O *L 3.000e-01 *S 1.906e-03 3.272e-03 
Data_out\[31\] O *L 3.000e-01 *S 1.906e-03 3.272e-03 
Data_out\[30\] O *L 3.000e-01 *S 1.906e-03 3.272e-03 
Data_out\[29\] O *L 3.000e-01 *S 1.906e-03 3.272e-03 
Data_out\[28\] O *L 3.000e-01 *S 1.906e-03 3.272e-03 
Data_out\[27\] O *L 3.000e-01 *S 1.906e-03 3.272e-03 
Data_out\[26\] O *L 3.000e-01 *S 1.906e-03 3.272e-03 
Data_out\[25\] O *L 3.000e-01 *S 1.906e-03 3.272e-03 
Data_out\[24\] O *L 3.000e-01 *S 1.906e-03 3.272e-03 
Data_out\[23\] O *L 3.000e-01 *S 1.906e-03 3.272e-03 
Data_out\[22\] O *L 3.000e-01 *S 1.906e-03 3.272e-03 
Data_out\[21\] O *L 3.000e-01 *S 1.906e-03 3.272e-03 
Data_out\[20\] O *L 3.000e-01 *S 1.906e-03 3.272e-03 
Data_out\[19\] O *L 3.000e-01 *S 1.906e-03 3.272e-03 
Data_out\[18\] O *L 3.000e-01 *S 1.906e-03 3.272e-03 
Data_out\[17\] O *L 3.000e-01 *S 1.906e-03 3.272e-03 
Data_out\[16\] O *L 3.000e-01 *S 1.906e-03 3.272e-03 
Data_out\[15\] O *L 3.000e-01 *S 1.906e-03 3.272e-03 
Data_out\[14\] O *L 3.000e-01 *S 1.906e-03 3.272e-03 
Data_out\[13\] O *L 3.000e-01 *S 1.906e-03 3.272e-03 
Data_out\[12\] O *L 3.000e-01 *S 1.906e-03 3.272e-03 
Data_out\[11\] O *L 3.000e-01 *S 1.906e-03 3.272e-03 
Data_out\[10\] O *L 3.000e-01 *S 1.906e-03 3.272e-03 
Data_out\[9\] O *L 3.000e-01 *S 1.906e-03 3.272e-03 
Data_out\[8\] O *L 3.000e-01 *S 1.906e-03 3.272e-03 
Data_out\[7\] O *L 3.000e-01 *S 1.906e-03 3.272e-03 
Data_out\[6\] O *L 3.000e-01 *S 1.906e-03 3.272e-03 
Data_out\[5\] O *L 3.000e-01 *S 1.906e-03 3.272e-03 
Data_out\[4\] O *L 3.000e-01 *S 1.906e-03 3.272e-03 
Data_out\[3\] O *L 3.000e-01 *S 1.906e-03 3.272e-03 
Data_out\[2\] O *L 3.000e-01 *S 1.906e-03 3.272e-03 
Data_out\[1\] O *L 3.000e-01 *S 1.906e-03 3.272e-03 
Data_out\[0\] O *L 3.000e-01 *S 1.906e-03 3.272e-03 
data_valid_out O *L 3.000e-01 *S 1.906e-03 3.272e-03 
mode_out O *L 3.000e-01 *S 1.906e-03 3.272e-03 

*R_NET clk 2.153e+03
*DRIVER clk
*CELL NBUFFX4_RVT
*C2_R1_C1 1.077e+03 8.897e+01 1.077e+03 
*LOADS
*RC mode_pipe_reg_1_:CLK 4.514e-01
*RC valid_pipe_reg_0_:CLK 4.535e-01
*RC STAGE_LOOP_0__GROUP_LOOP_1__BFLY_LOOP_0__ntt_bfly_inst_pipe_mult_prod_reg_6_:CLK 4.535e-01
*RC STAGE_LOOP_1__GROUP_LOOP_0__BFLY_LOOP_1__ntt_bfly_inst_pipe_A_reg_reg_31_:CLK 4.535e-01
*RC STAGE_LOOP_1__GROUP_LOOP_0__BFLY_LOOP_1__ntt_bfly_inst_pipe_A_reg_reg_22_:CLK 4.535e-01
*RC STAGE_LOOP_1__GROUP_LOOP_0__BFLY_LOOP_1__ntt_bfly_inst_pipe_A_reg_reg_1_:CLK 4.535e-01
*RC STAGE_LOOP_1__GROUP_LOOP_0__BFLY_LOOP_1__ntt_bfly_inst_pipe_A_reg_reg_0_:CLK 4.535e-01
*RC STAGE_LOOP_1__GROUP_LOOP_0__BFLY_LOOP_0__ntt_bfly_inst_pipe_mult_prod_reg_31_:CLK 4.535e-01
*RC STAGE_LOOP_1__GROUP_LOOP_0__BFLY_LOOP_0__ntt_bfly_inst_pipe_mult_prod_reg_30_:CLK 4.535e-01
*RC STAGE_LOOP_1__GROUP_LOOP_0__BFLY_LOOP_0__ntt_bfly_inst_pipe_mult_prod_reg_29_:CLK 4.535e-01
*RC STAGE_LOOP_1__GROUP_LOOP_0__BFLY_LOOP_0__ntt_bfly_inst_pipe_mult_prod_reg_28_:CLK 4.535e-01
*RC STAGE_LOOP_1__GROUP_LOOP_0__BFLY_LOOP_0__ntt_bfly_inst_pipe_mult_prod_reg_27_:CLK 4.535e-01
*RC STAGE_LOOP_1__GROUP_LOOP_0__BFLY_LOOP_0__ntt_bfly_inst_pipe_mult_prod_reg_26_:CLK 4.535e-01
*RC STAGE_LOOP_1__GROUP_LOOP_0__BFLY_LOOP_0__ntt_bfly_inst_pipe_mult_prod_reg_25_:CLK 4.535e-01
*RC STAGE_LOOP_1__GROUP_LOOP_0__BFLY_LOOP_0__ntt_bfly_inst_pipe_mult_prod_reg_24_:CLK 4.535e-01
*RC STAGE_LOOP_1__GROUP_LOOP_0__BFLY_LOOP_0__ntt_bfly_inst_pipe_mult_prod_reg_23_:CLK 4.535e-01
*RC STAGE_LOOP_1__GROUP_LOOP_0__BFLY_LOOP_0__ntt_bfly_inst_pipe_mult_prod_reg_22_:CLK 4.535e-01
*RC STAGE_LOOP_1__GROUP_LOOP_0__BFLY_LOOP_0__ntt_bfly_inst_pipe_mult_prod_reg_21_:CLK 4.535e-01
*RC STAGE_LOOP_1__GROUP_LOOP_0__BFLY_LOOP_0__ntt_bfly_inst_pipe_mult_prod_reg_20_:CLK 4.535e-01
*RC STAGE_LOOP_1__GROUP_LOOP_0__BFLY_LOOP_0__ntt_bfly_inst_pipe_mult_prod_reg_19_:CLK 4.535e-01
*RC STAGE_LOOP_1__GROUP_LOOP_0__BFLY_LOOP_0__ntt_bfly_inst_pipe_mult_prod_reg_18_:CLK 4.535e-01
*RC STAGE_LOOP_1__GROUP_LOOP_0__BFLY_LOOP_0__ntt_bfly_inst_pipe_mult_prod_reg_17_:CLK 4.535e-01
*RC STAGE_LOOP_1__GROUP_LOOP_0__BFLY_LOOP_0__ntt_bfly_inst_pipe_mult_prod_reg_16_:CLK 4.535e-01
*RC STAGE_LOOP_1__GROUP_LOOP_0__BFLY_LOOP_0__ntt_bfly_inst_pipe_mult_prod_reg_15_:CLK 4.535e-01
*RC STAGE_LOOP_1__GROUP_LOOP_0__BFLY_LOOP_0__ntt_bfly_inst_pipe_mult_prod_reg_14_:CLK 4.535e-01
*RC STAGE_LOOP_1__GROUP_LOOP_0__BFLY_LOOP_0__ntt_bfly_inst_pipe_mult_prod_reg_13_:CLK 4.535e-01
*RC STAGE_LOOP_1__GROUP_LOOP_0__BFLY_LOOP_0__ntt_bfly_inst_pipe_mult_prod_reg_12_:CLK 4.535e-01
*RC STAGE_LOOP_1__GROUP_LOOP_0__BFLY_LOOP_0__ntt_bfly_inst_pipe_mult_prod_reg_11_:CLK 4.535e-01
*RC STAGE_LOOP_1__GROUP_LOOP_0__BFLY_LOOP_0__ntt_bfly_inst_pipe_mult_prod_reg_10_:CLK 4.535e-01
*RC STAGE_LOOP_1__GROUP_LOOP_0__BFLY_LOOP_0__ntt_bfly_inst_pipe_mult_prod_reg_9_:CLK 4.535e-01
*RC STAGE_LOOP_1__GROUP_LOOP_0__BFLY_LOOP_0__ntt_bfly_inst_pipe_mult_prod_reg_8_:CLK 4.535e-01
*RC STAGE_LOOP_1__GROUP_LOOP_0__BFLY_LOOP_0__ntt_bfly_inst_pipe_mult_prod_reg_7_:CLK 4.535e-01
*RC STAGE_LOOP_1__GROUP_LOOP_0__BFLY_LOOP_0__ntt_bfly_inst_pipe_mult_prod_reg_6_:CLK 4.535e-01
*RC STAGE_LOOP_1__GROUP_LOOP_0__BFLY_LOOP_0__ntt_bfly_inst_pipe_mult_prod_reg_5_:CLK 4.535e-01
*RC STAGE_LOOP_1__GROUP_LOOP_0__BFLY_LOOP_0__ntt_bfly_inst_pipe_mult_prod_reg_4_:CLK 4.535e-01
*RC STAGE_LOOP_1__GROUP_LOOP_0__BFLY_LOOP_0__ntt_bfly_inst_pipe_mult_prod_reg_3_:CLK 4.535e-01
*RC STAGE_LOOP_1__GROUP_LOOP_0__BFLY_LOOP_0__ntt_bfly_inst_pipe_mult_prod_reg_2_:CLK 4.535e-01
*RC STAGE_LOOP_1__GROUP_LOOP_0__BFLY_LOOP_0__ntt_bfly_inst_pipe_mult_prod_reg_1_:CLK 4.535e-01
*RC STAGE_LOOP_1__GROUP_LOOP_0__BFLY_LOOP_0__ntt_bfly_inst_pipe_A_reg_reg_31_:CLK 4.535e-01
*RC STAGE_LOOP_1__GROUP_LOOP_0__BFLY_LOOP_0__ntt_bfly_inst_pipe_A_reg_reg_22_:CLK 4.535e-01
*RC STAGE_LOOP_1__GROUP_LOOP_0__BFLY_LOOP_0__ntt_bfly_inst_pipe_A_reg_reg_1_:CLK 4.535e-01
*RC STAGE_LOOP_1__GROUP_LOOP_0__BFLY_LOOP_0__ntt_bfly_inst_pipe_A_reg_reg_0_:CLK 4.535e-01
*RC STAGE_LOOP_0__GROUP_LOOP_1__BFLY_LOOP_0__ntt_bfly_inst_pipe_mult_prod_reg_31_:CLK 4.535e-01
*RC STAGE_LOOP_0__GROUP_LOOP_1__BFLY_LOOP_0__ntt_bfly_inst_pipe_mult_prod_reg_30_:CLK 4.535e-01
*RC STAGE_LOOP_0__GROUP_LOOP_1__BFLY_LOOP_0__ntt_bfly_inst_pipe_mult_prod_reg_29_:CLK 4.535e-01
*RC STAGE_LOOP_0__GROUP_LOOP_1__BFLY_LOOP_0__ntt_bfly_inst_pipe_mult_prod_reg_28_:CLK 4.535e-01
*RC STAGE_LOOP_0__GROUP_LOOP_1__BFLY_LOOP_0__ntt_bfly_inst_pipe_mult_prod_reg_27_:CLK 4.535e-01
*RC STAGE_LOOP_0__GROUP_LOOP_1__BFLY_LOOP_0__ntt_bfly_inst_pipe_mult_prod_reg_26_:CLK 4.535e-01
*RC STAGE_LOOP_0__GROUP_LOOP_1__BFLY_LOOP_0__ntt_bfly_inst_pipe_mult_prod_reg_25_:CLK 4.535e-01
*RC STAGE_LOOP_0__GROUP_LOOP_1__BFLY_LOOP_0__ntt_bfly_inst_pipe_mult_prod_reg_24_:CLK 4.535e-01
*RC STAGE_LOOP_0__GROUP_LOOP_1__BFLY_LOOP_0__ntt_bfly_inst_pipe_mult_prod_reg_23_:CLK 4.535e-01
*RC STAGE_LOOP_0__GROUP_LOOP_1__BFLY_LOOP_0__ntt_bfly_inst_pipe_mult_prod_reg_22_:CLK 4.535e-01
*RC STAGE_LOOP_0__GROUP_LOOP_1__BFLY_LOOP_0__ntt_bfly_inst_pipe_mult_prod_reg_21_:CLK 4.535e-01
*RC STAGE_LOOP_0__GROUP_LOOP_1__BFLY_LOOP_0__ntt_bfly_inst_pipe_mult_prod_reg_20_:CLK 4.535e-01
*RC STAGE_LOOP_0__GROUP_LOOP_1__BFLY_LOOP_0__ntt_bfly_inst_pipe_mult_prod_reg_19_:CLK 4.535e-01
*RC STAGE_LOOP_0__GROUP_LOOP_1__BFLY_LOOP_0__ntt_bfly_inst_pipe_mult_prod_reg_18_:CLK 4.535e-01
*RC STAGE_LOOP_0__GROUP_LOOP_1__BFLY_LOOP_0__ntt_bfly_inst_pipe_mult_prod_reg_17_:CLK 4.535e-01
*RC STAGE_LOOP_0__GROUP_LOOP_1__BFLY_LOOP_0__ntt_bfly_inst_pipe_mult_prod_reg_16_:CLK 4.535e-01
*RC STAGE_LOOP_0__GROUP_LOOP_1__BFLY_LOOP_0__ntt_bfly_inst_pipe_mult_prod_reg_15_:CLK 4.535e-01
*RC STAGE_LOOP_0__GROUP_LOOP_1__BFLY_LOOP_0__ntt_bfly_inst_pipe_mult_prod_reg_14_:CLK 4.535e-01
*RC STAGE_LOOP_0__GROUP_LOOP_1__BFLY_LOOP_0__ntt_bfly_inst_pipe_mult_prod_reg_13_:CLK 4.535e-01
*RC STAGE_LOOP_0__GROUP_LOOP_1__BFLY_LOOP_0__ntt_bfly_inst_pipe_mult_prod_reg_12_:CLK 4.535e-01
*RC STAGE_LOOP_0__GROUP_LOOP_1__BFLY_LOOP_0__ntt_bfly_inst_pipe_mult_prod_reg_11_:CLK 4.535e-01
*RC STAGE_LOOP_0__GROUP_LOOP_1__BFLY_LOOP_0__ntt_bfly_inst_pipe_mult_prod_reg_10_:CLK 4.535e-01
*RC STAGE_LOOP_0__GROUP_LOOP_1__BFLY_LOOP_0__ntt_bfly_inst_pipe_mult_prod_reg_9_:CLK 4.535e-01
*RC STAGE_LOOP_0__GROUP_LOOP_1__BFLY_LOOP_0__ntt_bfly_inst_pipe_mult_prod_reg_8_:CLK 4.535e-01
*RC STAGE_LOOP_0__GROUP_LOOP_1__BFLY_LOOP_0__ntt_bfly_inst_pipe_mult_prod_reg_7_:CLK 4.535e-01
*RC valid_pipe_reg_2_:CLK 4.535e-01
*RC stage_regs_reg_1__3__5_:CLK 4.535e-01
*RC STAGE_LOOP_1__GROUP_LOOP_0__BFLY_LOOP_1__ntt_bfly_inst_pipe_A_reg_reg_30_:CLK 4.535e-01
*RC STAGE_LOOP_1__GROUP_LOOP_0__BFLY_LOOP_1__ntt_bfly_inst_pipe_A_reg_reg_29_:CLK 4.535e-01
*RC STAGE_LOOP_1__GROUP_LOOP_0__BFLY_LOOP_1__ntt_bfly_inst_pipe_A_reg_reg_28_:CLK 4.535e-01
*RC STAGE_LOOP_1__GROUP_LOOP_0__BFLY_LOOP_1__ntt_bfly_inst_pipe_A_reg_reg_27_:CLK 4.535e-01
*RC STAGE_LOOP_1__GROUP_LOOP_0__BFLY_LOOP_1__ntt_bfly_inst_pipe_A_reg_reg_26_:CLK 4.535e-01
*RC STAGE_LOOP_1__GROUP_LOOP_0__BFLY_LOOP_1__ntt_bfly_inst_pipe_A_reg_reg_25_:CLK 4.535e-01
*RC STAGE_LOOP_1__GROUP_LOOP_0__BFLY_LOOP_1__ntt_bfly_inst_pipe_A_reg_reg_24_:CLK 4.535e-01
*RC STAGE_LOOP_1__GROUP_LOOP_0__BFLY_LOOP_1__ntt_bfly_inst_pipe_A_reg_reg_23_:CLK 4.535e-01
*RC STAGE_LOOP_1__GROUP_LOOP_0__BFLY_LOOP_1__ntt_bfly_inst_pipe_A_reg_reg_21_:CLK 4.535e-01
*RC STAGE_LOOP_1__GROUP_LOOP_0__BFLY_LOOP_1__ntt_bfly_inst_pipe_A_reg_reg_20_:CLK 4.535e-01
*RC STAGE_LOOP_1__GROUP_LOOP_0__BFLY_LOOP_1__ntt_bfly_inst_pipe_A_reg_reg_19_:CLK 4.535e-01
*RC STAGE_LOOP_1__GROUP_LOOP_0__BFLY_LOOP_1__ntt_bfly_inst_pipe_A_reg_reg_18_:CLK 4.535e-01
*RC STAGE_LOOP_1__GROUP_LOOP_0__BFLY_LOOP_1__ntt_bfly_inst_pipe_A_reg_reg_17_:CLK 4.535e-01
*RC STAGE_LOOP_1__GROUP_LOOP_0__BFLY_LOOP_1__ntt_bfly_inst_pipe_A_reg_reg_16_:CLK 4.535e-01
*RC STAGE_LOOP_1__GROUP_LOOP_0__BFLY_LOOP_1__ntt_bfly_inst_pipe_A_reg_reg_15_:CLK 4.535e-01
*RC STAGE_LOOP_1__GROUP_LOOP_0__BFLY_LOOP_1__ntt_bfly_inst_pipe_A_reg_reg_14_:CLK 4.535e-01
*RC STAGE_LOOP_1__GROUP_LOOP_0__BFLY_LOOP_1__ntt_bfly_inst_pipe_A_reg_reg_13_:CLK 4.535e-01
*RC STAGE_LOOP_1__GROUP_LOOP_0__BFLY_LOOP_1__ntt_bfly_inst_pipe_A_reg_reg_12_:CLK 4.535e-01
*RC STAGE_LOOP_1__GROUP_LOOP_0__BFLY_LOOP_1__ntt_bfly_inst_pipe_A_reg_reg_11_:CLK 4.535e-01
*RC STAGE_LOOP_1__GROUP_LOOP_0__BFLY_LOOP_1__ntt_bfly_inst_pipe_A_reg_reg_10_:CLK 4.535e-01
*RC STAGE_LOOP_1__GROUP_LOOP_0__BFLY_LOOP_1__ntt_bfly_inst_pipe_A_reg_reg_9_:CLK 4.535e-01
*RC STAGE_LOOP_1__GROUP_LOOP_0__BFLY_LOOP_1__ntt_bfly_inst_pipe_A_reg_reg_8_:CLK 4.535e-01
*RC STAGE_LOOP_1__GROUP_LOOP_0__BFLY_LOOP_1__ntt_bfly_inst_pipe_A_reg_reg_7_:CLK 4.535e-01
*RC STAGE_LOOP_1__GROUP_LOOP_0__BFLY_LOOP_1__ntt_bfly_inst_pipe_A_reg_reg_6_:CLK 4.535e-01
*RC STAGE_LOOP_1__GROUP_LOOP_0__BFLY_LOOP_1__ntt_bfly_inst_pipe_A_reg_reg_5_:CLK 4.535e-01
*RC STAGE_LOOP_1__GROUP_LOOP_0__BFLY_LOOP_1__ntt_bfly_inst_pipe_A_reg_reg_4_:CLK 4.535e-01
*RC STAGE_LOOP_1__GROUP_LOOP_0__BFLY_LOOP_1__ntt_bfly_inst_pipe_A_reg_reg_3_:CLK 4.535e-01
*RC STAGE_LOOP_1__GROUP_LOOP_0__BFLY_LOOP_1__ntt_bfly_inst_pipe_A_reg_reg_2_:CLK 4.535e-01
*RC STAGE_LOOP_1__GROUP_LOOP_0__BFLY_LOOP_1__ntt_bfly_inst_pipe_mult_prod_reg_31_:CLK 4.535e-01
*RC STAGE_LOOP_1__GROUP_LOOP_0__BFLY_LOOP_1__ntt_bfly_inst_pipe_mult_prod_reg_30_:CLK 4.535e-01
*RC STAGE_LOOP_1__GROUP_LOOP_0__BFLY_LOOP_1__ntt_bfly_inst_pipe_mult_prod_reg_29_:CLK 4.535e-01
*RC STAGE_LOOP_1__GROUP_LOOP_0__BFLY_LOOP_1__ntt_bfly_inst_pipe_mult_prod_reg_28_:CLK 4.535e-01
*RC STAGE_LOOP_1__GROUP_LOOP_0__BFLY_LOOP_1__ntt_bfly_inst_pipe_mult_prod_reg_27_:CLK 4.535e-01
*RC STAGE_LOOP_1__GROUP_LOOP_0__BFLY_LOOP_1__ntt_bfly_inst_pipe_mult_prod_reg_26_:CLK 4.535e-01
*RC STAGE_LOOP_1__GROUP_LOOP_0__BFLY_LOOP_1__ntt_bfly_inst_pipe_mult_prod_reg_25_:CLK 4.535e-01
*RC STAGE_LOOP_1__GROUP_LOOP_0__BFLY_LOOP_1__ntt_bfly_inst_pipe_mult_prod_reg_24_:CLK 4.535e-01
*RC STAGE_LOOP_1__GROUP_LOOP_0__BFLY_LOOP_1__ntt_bfly_inst_pipe_mult_prod_reg_23_:CLK 4.535e-01
*RC STAGE_LOOP_1__GROUP_LOOP_0__BFLY_LOOP_1__ntt_bfly_inst_pipe_mult_prod_reg_22_:CLK 4.535e-01
*RC STAGE_LOOP_1__GROUP_LOOP_0__BFLY_LOOP_1__ntt_bfly_inst_pipe_mult_prod_reg_21_:CLK 4.535e-01
*RC STAGE_LOOP_1__GROUP_LOOP_0__BFLY_LOOP_1__ntt_bfly_inst_pipe_mult_prod_reg_20_:CLK 4.535e-01
*RC STAGE_LOOP_1__GROUP_LOOP_0__BFLY_LOOP_1__ntt_bfly_inst_pipe_mult_prod_reg_19_:CLK 4.535e-01
*RC STAGE_LOOP_1__GROUP_LOOP_0__BFLY_LOOP_1__ntt_bfly_inst_pipe_mult_prod_reg_18_:CLK 4.535e-01
*RC STAGE_LOOP_1__GROUP_LOOP_0__BFLY_LOOP_1__ntt_bfly_inst_pipe_mult_prod_reg_17_:CLK 4.535e-01
*RC STAGE_LOOP_1__GROUP_LOOP_0__BFLY_LOOP_1__ntt_bfly_inst_pipe_mult_prod_reg_16_:CLK 4.535e-01
*RC STAGE_LOOP_1__GROUP_LOOP_0__BFLY_LOOP_1__ntt_bfly_inst_pipe_mult_prod_reg_15_:CLK 4.535e-01
*RC STAGE_LOOP_1__GROUP_LOOP_0__BFLY_LOOP_1__ntt_bfly_inst_pipe_mult_prod_reg_14_:CLK 4.535e-01
*RC STAGE_LOOP_1__GROUP_LOOP_0__BFLY_LOOP_1__ntt_bfly_inst_pipe_mult_prod_reg_13_:CLK 4.535e-01
*RC STAGE_LOOP_1__GROUP_LOOP_0__BFLY_LOOP_1__ntt_bfly_inst_pipe_mult_prod_reg_12_:CLK 4.535e-01
*RC STAGE_LOOP_1__GROUP_LOOP_0__BFLY_LOOP_1__ntt_bfly_inst_pipe_mult_prod_reg_11_:CLK 4.535e-01
*RC STAGE_LOOP_1__GROUP_LOOP_0__BFLY_LOOP_1__ntt_bfly_inst_pipe_mult_prod_reg_10_:CLK 4.535e-01
*RC STAGE_LOOP_1__GROUP_LOOP_0__BFLY_LOOP_1__ntt_bfly_inst_pipe_mult_prod_reg_9_:CLK 4.535e-01
*RC STAGE_LOOP_1__GROUP_LOOP_0__BFLY_LOOP_1__ntt_bfly_inst_pipe_mult_prod_reg_8_:CLK 4.535e-01
*RC STAGE_LOOP_1__GROUP_LOOP_0__BFLY_LOOP_1__ntt_bfly_inst_pipe_mult_prod_reg_7_:CLK 4.535e-01
*RC STAGE_LOOP_1__GROUP_LOOP_0__BFLY_LOOP_1__ntt_bfly_inst_pipe_mult_prod_reg_6_:CLK 4.535e-01
*RC STAGE_LOOP_1__GROUP_LOOP_0__BFLY_LOOP_1__ntt_bfly_inst_pipe_mult_prod_reg_5_:CLK 4.535e-01
*RC STAGE_LOOP_1__GROUP_LOOP_0__BFLY_LOOP_1__ntt_bfly_inst_pipe_mult_prod_reg_4_:CLK 4.535e-01
*RC STAGE_LOOP_1__GROUP_LOOP_0__BFLY_LOOP_1__ntt_bfly_inst_pipe_mult_prod_reg_3_:CLK 4.535e-01
*RC STAGE_LOOP_1__GROUP_LOOP_0__BFLY_LOOP_1__ntt_bfly_inst_pipe_mult_prod_reg_2_:CLK 4.535e-01
*RC STAGE_LOOP_1__GROUP_LOOP_0__BFLY_LOOP_1__ntt_bfly_inst_pipe_mult_prod_reg_1_:CLK 4.535e-01
*RC STAGE_LOOP_1__GROUP_LOOP_0__BFLY_LOOP_1__ntt_bfly_inst_pipe_mult_prod_reg_0_:CLK 4.535e-01
*RC STAGE_LOOP_1__GROUP_LOOP_0__BFLY_LOOP_0__ntt_bfly_inst_pipe_A_reg_reg_30_:CLK 4.535e-01
*RC STAGE_LOOP_1__GROUP_LOOP_0__BFLY_LOOP_0__ntt_bfly_inst_pipe_A_reg_reg_29_:CLK 4.535e-01
*RC STAGE_LOOP_1__GROUP_LOOP_0__BFLY_LOOP_0__ntt_bfly_inst_pipe_A_reg_reg_28_:CLK 4.535e-01
*RC STAGE_LOOP_1__GROUP_LOOP_0__BFLY_LOOP_0__ntt_bfly_inst_pipe_A_reg_reg_27_:CLK 4.535e-01
*RC STAGE_LOOP_1__GROUP_LOOP_0__BFLY_LOOP_0__ntt_bfly_inst_pipe_A_reg_reg_26_:CLK 4.535e-01
*RC STAGE_LOOP_1__GROUP_LOOP_0__BFLY_LOOP_0__ntt_bfly_inst_pipe_A_reg_reg_25_:CLK 4.535e-01
*RC STAGE_LOOP_1__GROUP_LOOP_0__BFLY_LOOP_0__ntt_bfly_inst_pipe_A_reg_reg_24_:CLK 4.535e-01
*RC STAGE_LOOP_1__GROUP_LOOP_0__BFLY_LOOP_0__ntt_bfly_inst_pipe_A_reg_reg_23_:CLK 4.535e-01
*RC STAGE_LOOP_1__GROUP_LOOP_0__BFLY_LOOP_0__ntt_bfly_inst_pipe_A_reg_reg_21_:CLK 4.535e-01
*RC STAGE_LOOP_1__GROUP_LOOP_0__BFLY_LOOP_0__ntt_bfly_inst_pipe_A_reg_reg_20_:CLK 4.535e-01
*RC STAGE_LOOP_1__GROUP_LOOP_0__BFLY_LOOP_0__ntt_bfly_inst_pipe_A_reg_reg_19_:CLK 4.535e-01
*RC STAGE_LOOP_1__GROUP_LOOP_0__BFLY_LOOP_0__ntt_bfly_inst_pipe_A_reg_reg_18_:CLK 4.535e-01
*RC STAGE_LOOP_1__GROUP_LOOP_0__BFLY_LOOP_0__ntt_bfly_inst_pipe_A_reg_reg_17_:CLK 4.535e-01
*RC STAGE_LOOP_1__GROUP_LOOP_0__BFLY_LOOP_0__ntt_bfly_inst_pipe_A_reg_reg_16_:CLK 4.535e-01
*RC STAGE_LOOP_1__GROUP_LOOP_0__BFLY_LOOP_0__ntt_bfly_inst_pipe_A_reg_reg_15_:CLK 4.535e-01
*RC STAGE_LOOP_1__GROUP_LOOP_0__BFLY_LOOP_0__ntt_bfly_inst_pipe_A_reg_reg_14_:CLK 4.535e-01
*RC STAGE_LOOP_1__GROUP_LOOP_0__BFLY_LOOP_0__ntt_bfly_inst_pipe_A_reg_reg_13_:CLK 4.535e-01